Version 4
SHEET 1 880 680
WIRE 160 80 32 80
WIRE 368 80 240 80
WIRE 32 128 32 80
WIRE 368 128 368 80
WIRE 32 256 32 208
WIRE 224 256 32 256
WIRE 368 256 368 192
WIRE 368 256 224 256
WIRE 224 288 224 256
FLAG 224 288 0
SYMBOL voltage 32 112 R0
WINDOW 123 24 124 Left 2
WINDOW 39 0 0 Left 0
SYMATTR Value2 AC 1 0
SYMATTR InstName V1
SYMATTR Value ""
SYMBOL res 144 96 R270
WINDOW 0 32 56 VTop 2
WINDOW 3 0 56 VBottom 2
SYMATTR InstName R1
SYMATTR Value 79.57
SYMBOL cap 352 128 R0
SYMATTR InstName C1
SYMATTR Value 10µ
TEXT 0 312 Left 2 !.ac dec 100 1 10000
